Input Parameters:
   integrator           = md
   nsteps               = 1000000
   init_step            = 0
   ns_type              = Grid
   nstlist              = 10
   ndelta               = 2
   nstcomm              = 10
   comm_mode            = Linear
   nstlog               = 1000
   nstxout              = 1000
   nstvout              = 1000
   nstfout              = 0
   nstcalcenergy        = 10
   nstenergy            = 1000
   nstxtcout            = 1000
   init_t               = 0
   delta_t              = 0.01
   xtcprec              = 1000
   nkx                  = 0
   nky                  = 0
   nkz                  = 0
   pme_order            = 4
   ewald_rtol           = 1e-05
   ewald_geometry       = 0
   epsilon_surface      = 0
   optimize_fft         = FALSE
   ePBC                 = xyz
   bPeriodicMols        = FALSE
   bContinuation        = FALSE
   bShakeSOR            = FALSE
   etc                  = V-rescale
   nsttcouple           = 10
   epc                  = Berendsen
   epctype              = Isotropic
   nstpcouple           = 10
   tau_p                = 3
   ref_p (3x3):
      ref_p[    0]={ 1.00000e+00,  0.00000e+00,  0.00000e+00}
      ref_p[    1]={ 0.00000e+00,  1.00000e+00,  0.00000e+00}
      ref_p[    2]={ 0.00000e+00,  0.00000e+00,  1.00000e+00}
   compress (3x3):
      compress[    0]={ 3.00000e-04,  0.00000e+00,  0.00000e+00}
      compress[    1]={ 0.00000e+00,  3.00000e-04,  0.00000e+00}
      compress[    2]={ 0.00000e+00,  0.00000e+00,  3.00000e-04}
   refcoord_scaling     = No
   posres_com (3):
      posres_com[0]= 0.00000e+00
      posres_com[1]= 0.00000e+00
      posres_com[2]= 0.00000e+00
   posres_comB (3):
      posres_comB[0]= 0.00000e+00
      posres_comB[1]= 0.00000e+00
      posres_comB[2]= 0.00000e+00
   andersen_seed        = 815131
   rlist                = 1.4
   rlistlong            = 1.4
   rtpi                 = 0.05
   coulombtype          = Shift
   rcoulomb_switch      = 0
   rcoulomb             = 1.2
   vdwtype              = Shift
   rvdw_switch          = 0.9
   rvdw                 = 1.2
   epsilon_r            = 15
   epsilon_rf           = 1
   tabext               = 1
   implicit_solvent     = No
   gb_algorithm         = Still
   gb_epsilon_solvent   = 80
   nstgbradii           = 1
   rgbradii             = 1
   gb_saltconc          = 0
   gb_obc_alpha         = 1
   gb_obc_beta          = 0.8
   gb_obc_gamma         = 4.85
   gb_dielectric_offset = 0.009
   sa_algorithm         = Ace-approximation
   sa_surface_tension   = 2.05016
   DispCorr             = No
   free_energy          = no
   init_lambda          = 0
   delta_lambda         = 0
   n_foreign_lambda     = 0
   sc_alpha             = 0
   sc_power             = 0
   sc_sigma             = 0.3
   sc_sigma_min         = 0.3
   nstdhdl              = 10
   separate_dhdl_file   = yes
   dhdl_derivatives     = yes
   dh_hist_size         = 0
   dh_hist_spacing      = 0.1
   nwall                = 0
   wall_type            = 9-3
   wall_atomtype[0]     = -1
   wall_atomtype[1]     = -1
   wall_density[0]      = 0
   wall_density[1]      = 0
   wall_ewald_zfac      = 3
   pull                 = no
   disre                = No
   disre_weighting      = Conservative
   disre_mixed          = FALSE
   dr_fc                = 1000
   dr_tau               = 0
   nstdisreout          = 100
   orires_fc            = 0
   orires_tau           = 0
   nstorireout          = 100
   dihre-fc             = 1000
   em_stepsize          = 0.01
   em_tol               = 10
   niter                = 20
   fc_stepsize          = 0
   nstcgsteep           = 1000
   nbfgscorr            = 10
   ConstAlg             = Lincs
   shake_tol            = 0.0001
   lincs_order          = 4
   lincs_warnangle      = 30
   lincs_iter           = 1
   bd_fric              = 0
   ld_seed              = 1993
   cos_accel            = 0
   deform (3x3):
      deform[    0]={ 0.00000e+00,  0.00000e+00,  0.00000e+00}
      deform[    1]={ 0.00000e+00,  0.00000e+00,  0.00000e+00}
      deform[    2]={ 0.00000e+00,  0.00000e+00,  0.00000e+00}
   userint1             = 0
   userint2             = 0
   userint3             = 0
   userint4             = 0
   userreal1            = 0
   userreal2            = 0
   userreal3            = 0
   userreal4            = 0
grpopts:
   nrdf:          28        3084
   ref_t:         298         298
   tau_t:           1           1
anneal:          No          No
ann_npoints:           0           0
   acc:	           0           0           0
   nfreeze:           N           N           N
   energygrp_flags[  0]: 0 0
   energygrp_flags[  1]: 0 0
   efield-x:
      n = 0
   efield-xt:
      n = 0
   efield-y:
      n = 0
   efield-yt:
      n = 0
   efield-z:
      n = 0
   efield-zt:
      n = 0
   bQMMM                = FALSE
   QMconstraints        = 0
   QMMMscheme           = 0
   scalefactor          = 1
qm_opts:
   ngQM                 = 0

Initializing Domain Decomposition on 8 nodes
Dynamic load balancing: auto
Will sort the charge groups at every domain (re)decomposition
Initial maximum inter charge-group distances:
  multi-body bonded interactions: 0.701 nm, G96Angle, atoms 1 5
Minimum cell size due to bonded interactions: 0.771 nm
Maximum distance for 5 constraints, at 120 deg. angles, all-trans: 1.890 nm
Estimated maximum distance required for P-LINCS: 1.890 nm
This distance will limit the DD cell size, you can override this with -rcon
Scaling the initial minimum size with 1/0.8 (option -dds) = 1.25
Optimizing the DD grid for 8 cells with a minimum initial size of 2.362 nm
The maximum allowed number of cells is: X 2 Y 2 Z 2
Domain decomposition grid 2 x 2 x 2, separate PME nodes 0
Domain decomposition nodeid 0, coordinates 0 0 0

Table routines are used for coulomb: TRUE
Table routines are used for vdw:     TRUE
Using shifted Lennard-Jones, switch between 0.9 and 1.2 nm
Cut-off's:   NS: 1.4   Coulomb: 1.2   LJ: 1.2
System total charge: 0.000
Generated table with 1200 data points for Shift.
Tabscale = 500 points/nm
Generated table with 1200 data points for LJ6Shift.
Tabscale = 500 points/nm
Generated table with 1200 data points for LJ12Shift.
Tabscale = 500 points/nm
Configuring nonbonded kernels...
Configuring standard C nonbonded kernels...
Testing x86_64 SSE2 support... present.

Removing pbc first time

Initializing Parallel LINear Constraint Solver

The number of constraints is 14
There are inter charge-group constraints,
will communicate selected coordinates each lincs iteration

Linking all bonded interactions to atoms

The initial number of communication pulses is: X 1 Y 1 Z 1
The initial domain decomposition cell size is: X 2.50 nm Y 2.50 nm Z 2.50 nm

The maximum allowed distance for charge groups involved in interactions is:
                 non-bonded interactions           1.400 nm
(the following are initial values, they could change due to box deformation)
            two-body bonded interactions  (-rdd)   1.400 nm
          multi-body bonded interactions  (-rdd)   1.400 nm
  atoms separated by up to 5 constraints  (-rcon)  2.500 nm

When dynamic load balancing gets turned on, these settings will change to:
The maximum number of communication pulses is: X 1 Y 1 Z 1
The minimum size for domain decomposition cells is 1.890 nm
The requested allowed shrink of DD cells (option -dds) is: 0.80
The allowed shrink of domain decomposition cells is: X 0.76 Y 0.76 Z 0.76
The maximum allowed distance for charge groups involved in interactions is:
                 non-bonded interactions           1.400 nm
            two-body bonded interactions  (-rdd)   1.400 nm
          multi-body bonded interactions  (-rdd)   1.400 nm
  atoms separated by up to 5 constraints  (-rcon)  1.890 nm

Making 3D domain decomposition grid 2 x 2 x 2, home cell index 0 0 0

Center of mass motion removal mode is Linear
We have the following groups for center of mass motion removal:
  0:  Protein
  1:  Other

There are: 1044 Atoms
Charge group distribution at step 0: 129 131 134 130 130 130 131 129
Grid: 4 x 4 x 4 cells

Constraining the starting coordinates (step 0)

Constraining the coordinates at t0-dt (step 0)
RMS relative constraint deviation after constraining: 1.09e-04
Initial temperature: 298.782 K

Started mdrun on node 0 Wed May  6 15:50:54 2020

           Step           Time         Lambda
              0        0.00000        0.00000

   Energies (kJ/mol)
       G96Angle        LJ (SR)   Coulomb (SR)      Potential    Kinetic En.
    3.59725e+00   -3.10626e+04    1.42390e+00   -3.10576e+04    3.86504e+03
   -2.71926e+04    2.98750e+02   -2.86297e+03    7.47787e-05

	<====  A V E R A G E S  ====>

	Statistics over 1000001 steps using 100001 frames

   Energies (kJ/mol)
       G96Angle        LJ (SR)   Coulomb (SR)      Potential    Kinetic En.
    1.48277e+01   -2.80116e+04   -9.29210e-01   -2.79977e+04    3.83900e+03
   Total Energy    Temperature Pressure (bar)   Constr. rmsd
   -2.41587e+04    2.96737e+02    9.85332e-01    0.00000e+00

          Box-X          Box-Y          Box-Z
    4.97842e+00    4.97842e+00    4.97842e+00

   Total Virial (kJ/mol)
    1.27529e+03   -2.17842e+00   -5.55137e-01
   -2.17842e+00    1.27737e+03    4.01848e+00
   -5.55135e-01    4.01848e+00    1.27553e+03

   Pressure (bar)
    1.30758e+00    6.11155e-01    1.30497e-01
    6.11155e-01    5.31884e-01   -1.20270e+00
    1.30497e-01   -1.20270e+00    1.11653e+00

   Total Dipole (D)
    4.70453e-01   -4.69376e+01   -1.55710e+01

  Epot (kJ/mol)        Coul-SR          LJ-SR
Protein-Protein    1.85106e+00   -1.19859e+02
  Protein-Other   -2.78428e+00   -5.11331e+02
    Other-Other    4.00920e-03   -2.73804e+04

      T-Protein        T-Other
    2.92233e+02    2.96778e+02
